SUMMARY OF JOB INFORMATION
  STEP      INC     ATT  ITRS     TOT TIME     STEP TIME      INC TIME
     1          1     1     3  0.500000E-01  0.500000E-01  0.500000E-01
     1          2     1     2  0.100000E+00  0.100000E+00  0.500000E-01
     1          3     1     2  0.175000E+00  0.175000E+00  0.750000E-01
     1          4     1     2  0.275000E+00  0.275000E+00  0.100000E+00
     1          5     1     2  0.375000E+00  0.375000E+00  0.100000E+00
     1          6     1     2  0.475000E+00  0.475000E+00  0.100000E+00
     1          7     1     2  0.575000E+00  0.575000E+00  0.100000E+00
     1          8     1     2  0.675000E+00  0.675000E+00  0.100000E+00
     1          9     1     2  0.775000E+00  0.775000E+00  0.100000E+00
     1         10     1     2  0.875000E+00  0.875000E+00  0.100000E+00
     1         11     1     2  0.975000E+00  0.975000E+00  0.100000E+00
     1         12     1     2  0.100000E+01  0.100000E+01  0.250000E-01
